The user wants you to create trajectories for all vehicles that do not yet exit the simulation. This means that the path for each of these vehicles should end at a road, which connects to no road afterward.
The change will be implemented via the manipulation of the SUMO route file containing the specified routes of all vehicles contained in the driving scenario. To aid you in manipulating the behavior in the next step, you will first be supplied with the corresponding .net file. This file contains information on the road network in the SUMO file format. Keep in mind the IDs of the lanes and focus on the connections between them. This is important, since it will limit the allowed modifications for the next step. Return a summary of your analysis, containing the relevant information of the edges, their connections, and the involved IDs.
To help your understanding of the file, here is a short example explaining the most important sections:

<edge id=":17_1" function="internal">
    <lane id=":17_1_0" index="0" disallow="pedestrian tram rail_urban rail rail_electric ship" speed="7.08" length="10.46" width="3.50" shape="5.52,-10.00 5.78,-9.48 6.82,-8.11 7.70,-7.38 8.72,-6.85 9.82,-6.55 11.54,-6.49 13.23,-6.78 14.46,-7.16"/>
</edge>
Explanation: An internal edge, as recognized by the function="internal" field. Used by SUMO for calculations and logical, internal connections. Users should typically not mention this field, and you can ignore it for the most part.

<edge id="2261" from="10" to="18" priority="3" type="highway.residential" spreadType="center" length="10.64" shape="-24.20,7.45 -10.47,2.27">
    <lane id="2261_0" index="0" disallow="pedestrian tram rail_urban rail rail_electric ship" speed="36.11" length="10.64" width="3.51" customShape="1" shape="-24.20,7.45 -24.00,7.37 -23.79,7.29 -23.59,7.22 -23.39,7.14 -23.19,7.06 -22.98,6.98 -22.78,6.90 -22.58,6.83 -22.38,6.75 -22.17,6.67 -21.97,6.59 -21.77,6.51 -21.57,6.43 -21.36,6.35 -21.16,6.28 -20.96,6.20 -20.76,6.12 -20.56,6.04 -20.35,5.96 -20.15,5.88 -19.95,5.80 -19.75,5.72 -19.55,5.65 -19.34,5.57 -19.14,5.49 -18.94,5.41 -18.74,5.33 -18.53,5.25 -18.33,5.17 -18.13,5.09 -17.93,5.01 -17.73,4.94 -17.52,4.86 -17.32,4.78 -17.12,4.70 -16.92,4.62 -16.71,4.54 -16.51,4.46 -16.31,4.39 -16.11,4.31 -15.90,4.23 -15.70,4.15 -15.50,4.07 -15.30,3.99 -15.09,3.92 -14.89,3.84 -14.69,3.76 -14.49,3.68 -14.28,3.61"/>
</edge>
Explanation: A simple edge consisting of a single lane. The ID that we should keep in mind is the edge id (2261), not the lane id, since the manipulation will be based on the edge-level. It is also important to note that the associated lane disallows many types of vehicles. For example: Since "tram" is explicitly disallowed, we would not let the user place a tram on this edge or specify the trajectory of a tram to lead to this edge.

<edge id="2042" from="18" to="15" priority="3" type="highway.residential" spreadType="center" length="81.35">
    <lane id="2042_0" index="0" disallow="pedestrian tram rail_urban rail rail_electric ship" speed="36.11" length="81.35" width="3.50" customShape="1" shape="-10.80,-3.85 -25.58,-42.06 -40.15,-79.72"/>
    <lane id="2042_1" index="1" disallow="pedestrian tram rail_urban rail rail_electric ship" speed="36.11" length="81.35" width="3.50" customShape="1" shape="-7.54,-5.11 -22.32,-43.32 -36.88,-80.99"/>
</edge>
Explanation: This is a more complex edge containing two different lanes. However, the interesting part for us is the edge id (2042) again, which we will use for identifying this part of the road network.

<connection from="2261" to="2042" fromLane="0" toLane="0" keepClear="0" contPos="-4.00" shape="-14.28,3.61 -12.75,2.84 -11.84,2.14 -11.09,1.26 -10.60,0.23 -10.38,-0.90 -10.41,-2.04 -10.78,-3.72 -11.02,-4.41" via=":18_3_0" tl="18" linkIndex="1" dir="r" state="o"/>
Explanation: This details a direct connection from one edge to another, meaning it is a valid path for vehicles that are allowed on both of the edges. "from" specifies the starting edge, whereas "to" specifies the end point of this connection. Note that these connections are one-directional.

<connection from="21892" to="24807" fromLane="0" toLane="0" keepClear="0" contPos="-4.00" shape="-259.97,-206.76 -254.29,-205.09 -248.60,-203.42" via=":28_6_0" dir="s" state="m"/>
<connection from="24807" to="21962" fromLane="0" toLane="0" keepClear="0" contPos="-4.00" via=":12_0_0" dir="s" state="M"/>
Explanation: Here you can see a transitive series of connections. Edge 21892 connects to edge 24807, which then connects to 21962.


Furthermore, here is another example for identifying the exit/outgoing edges in your analysis:

.net file:
<net xmlns:xsi="http://www.w3.org/2001/XMLSchema-instance" version="1.20" junctionCornerDetail="5" junctionLinkDetail="20" limitTurnSpeed="5.50" xsi:noNamespaceSchemaLocation="http://sumo.dlr.de/xsd/net_file.xsd">

    <location netOffset="0.00,0.00" convBoundary="-131.99,-36.65,100.51,183.01" origBoundary="-131.99,-36.65,100.51,183.01" projParameter="!"/>

    <type id="highway.unclassified_speed_14.0" priority="4" speed="14.00" disallow="tram rail_urban rail rail_electric ship"/>

    <edge id=":13_0" function="internal">
        <lane id=":13_0_0" index="0" disallow="tram rail_urban rail rail_electric ship" speed="11.50" length="22.55" width="20.62" shape="33.50,-0.18 23.81,1.86 21.63,2.40 20.85,2.77 19.93,3.61 19.31,4.71 18.94,5.93 18.64,8.04 18.54,11.66"/>
    </edge>
    <edge id=":13_1" function="internal">
        <lane id=":13_1_0" index="0" disallow="tram rail_urban rail rail_electric ship" speed="14.00" length="32.46" width="4.30" shape="33.50,-0.18 23.40,1.72 19.60,2.39 17.89,2.62 14.77,2.94 10.56,3.33 9.70,3.41 5.45,3.62 1.34,3.77"/>
    </edge>
    <edge id=":13_2" function="internal">
        <lane id=":13_2_0" index="0" disallow="tram rail_urban rail rail_electric ship" speed="14.00" length="31.65" width="4.72" shape="1.30,-0.06 9.41,-0.41 10.55,-0.51 14.34,-0.91 18.72,-1.43 32.62,-4.15"/>
    </edge>
    <edge id=":13_3" function="internal">
        <lane id=":13_3_0" index="0" disallow="tram rail_urban rail rail_electric ship" speed="10.02" length="25.61" width="20.62" shape="1.30,-0.06 4.29,-0.15 7.25,-0.16 8.32,-0.16 10.13,-0.09 11.49,0.08 12.53,0.25 13.66,0.61 14.94,1.16 15.96,1.88 17.02,2.89 17.53,3.63 17.96,4.55 18.45,7.67 18.54,11.66"/>
    </edge>
    <edge id=":13_4" function="internal">
        <lane id=":13_4_0" index="0" disallow="tram rail_urban rail rail_electric ship" speed="9.06" length="17.56" width="4.30" shape="14.55,11.15 14.33,10.27 14.30,9.40 14.29,9.08 13.79,7.71 13.60,6.97 13.49,6.60 13.29,6.30 12.86,5.85 12.46,5.63 11.31,4.98 10.50,4.70 10.02,4.64 9.57,4.61 8.97,4.60 6.94,4.11 6.62,4.10 5.11,3.95 4.02,3.83 2.95,3.79 1.34,3.77"/>
    </edge>
    <edge id=":13_5" function="internal">
        <lane id=":13_5_0" index="0" disallow="tram rail_urban rail rail_electric ship" speed="12.44" length="27.95" width="4.72" shape="14.62,11.16 14.48,7.90 14.47,6.41 14.50,6.17 14.62,5.00 14.73,4.49 15.04,3.34 15.33,2.69 15.61,2.10 16.18,1.12 16.35,0.95 17.22,0.03 17.61,-0.25 17.94,-0.48 18.54,-0.82 18.77,-0.94 19.39,-1.18 20.11,-1.44 21.97,-1.91 32.62,-4.15"/>
    </edge>

    <edge id="50195" from="1" to="13" priority="4" type="highway.unclassified_speed_14.0" spreadType="center" length="138.93" shape="-130.86,-36.65 16.22,2.27">
        <lane id="50195_0" index="0" disallow="tram rail_urban rail rail_electric ship" speed="14.00" length="138.93" width="3.69" customShape="1" shape="-130.86,-36.65 -113.80,-28.59 -95.85,-20.64 -95.14,-20.33 -88.40,-17.49 -81.64,-14.83 -80.62,-14.44 -66.53,-9.13 -65.86,-8.89 -58.75,-6.57 -57.96,-6.33 -51.57,-4.55 -51.34,-4.49 -46.63,-3.22 -45.68,-3.02 -41.58,-2.27 -40.05,-2.03 -32.63,-1.11 -21.50,-0.12 -11.22,0.42 -10.48,0.43 1.30,-0.06"/>
    </edge>
    <edge id="50197" from="13" to="4" priority="4" type="highway.unclassified_speed_14.0" spreadType="center" length="140.14" shape="15.20,6.13 -131.99,-33.89">
        <lane id="50197_0" index="0" disallow="tram rail_urban rail rail_electric ship" speed="14.00" length="140.14" width="4.30" customShape="1" shape="1.34,3.77 -11.32,3.89 -11.76,3.88 -20.77,3.31 -21.73,3.22 -32.27,2.03 -32.70,1.97 -40.45,0.88 -42.34,0.55 -46.25,-0.30 -51.49,-1.62 -52.13,-1.81 -59.57,-4.00 -66.86,-6.32 -67.49,-6.54 -82.19,-11.86 -82.71,-12.05 -89.53,-14.53 -90.09,-14.75 -97.09,-17.72 -99.31,-18.69 -115.04,-26.02 -131.99,-33.89"/>
    </edge>
    <edge id="50199" from="13" to="6" priority="4" type="highway.unclassified_speed_14.0" spreadType="center" length="68.68" shape="15.29,1.73 100.51,-11.97">
        <lane id="50199_0" index="0" disallow="tram rail_urban rail rail_electric ship" speed="14.00" length="68.68" width="4.72" customShape="1" shape="32.62,-4.15 41.34,-6.08 52.77,-8.58 53.28,-8.70 63.16,-10.72 71.81,-11.84 72.15,-11.88 80.61,-12.31 89.31,-12.34 90.12,-12.32 100.51,-11.97"/>
    </edge>
    <edge id="50201" from="7" to="13" priority="4" type="highway.unclassified_speed_14.0" spreadType="center" length="67.60" shape="100.34,-8.28 16.05,6.22">
        <lane id="50201_0" index="0" disallow="tram rail_urban rail rail_electric ship" speed="14.00" length="67.60" width="4.39" customShape="1" shape="100.34,-8.28 89.99,-8.51 88.46,-8.53 80.73,-8.41 72.27,-7.66 63.95,-6.32 53.65,-4.29 33.50,-0.18"/>
    </edge>
    <edge id="50203" from="13" to="10" priority="4" type="highway.unclassified_speed_14.0" spreadType="center" length="183.10" shape="25.49,7.37 -45.25,183.01">
        <lane id="50203_0" index="0" disallow="tram rail_urban rail rail_electric ship" speed="14.00" length="183.10" width="20.62" customShape="1" shape="18.54,11.66 18.15,14.75 17.09,19.56 15.20,26.10 13.01,32.81 9.17,44.60 4.03,59.78 -0.80,74.30 -6.64,89.70 -11.91,102.96 -17.52,117.33 -23.45,132.55 -30.34,148.19 -36.99,163.74 -41.60,174.30 -45.25,183.01"/>
    </edge>
    <edge id="50205" from="11" to="13" priority="4" type="highway.unclassified_speed_14.0" spreadType="center" length="181.64" shape="-48.48,181.13 12.21,2.77">
        <lane id="50205_0" index="0" disallow="tram rail_urban rail rail_electric ship" speed="14.00" length="181.64" width="7.50" customShape="1" shape="-48.48,181.13 -43.70,169.76 -37.20,154.57 -29.71,137.47 -23.73,123.03 -17.72,107.97 -12.92,94.64 -7.94,81.49 -1.97,65.16 2.36,51.82 8.27,34.07 11.09,26.50 12.76,21.40 14.03,17.27 14.56,14.46 14.65,11.16"/>
    </edge>

    <junction id="1" type="dead_end" x="-130.86" y="-36.65" incLanes="" intLanes="" shape="-131.64,-34.98 -130.07,-38.31"/>
    <junction id="10" type="dead_end" x="-45.25" y="183.01" incLanes="50203_0" intLanes="" shape="-35.74,187.00 -54.76,179.02"/>
    <junction id="11" type="dead_end" x="-48.48" y="181.13" incLanes="" intLanes="" shape="-45.03,182.58 -51.94,179.68"/>
    <junction id="13" type="zipper" x="15.73" y="4.05" incLanes="50201_0 50195_0 50205_0" intLanes=":13_0_0 :13_1_0 :13_2_0 :13_3_0 :13_4_0 :13_5_0" shape="33.97,1.97 32.11,-6.46 25.62,-4.99 20.82,-3.92 16.83,-3.15 12.82,-2.62 7.92,-2.23 1.29,-1.90 1.36,5.92 4.32,6.03 6.72,6.41 8.59,7.07 9.90,8.00 10.68,9.21 10.91,10.69 28.77,12.95 29.27,9.82 29.92,7.20 30.71,5.11 31.65,3.54 32.74,2.49" rightOfWay="edgePriority">
        <request index="0" response="001000" foes="001000" cont="0"/>
        <request index="1" response="111000" foes="111000" cont="0"/>
        <request index="2" response="100000" foes="100000" cont="0"/>
        <request index="3" response="100011" foes="100011" cont="0"/>
        <request index="4" response="000010" foes="000010" cont="0"/>
        <request index="5" response="001110" foes="001110" cont="0"/>
    </junction>
    <junction id="4" type="dead_end" x="-131.99" y="-33.89" incLanes="50197_0" intLanes="" shape="-132.90,-31.94 -131.09,-35.84"/>
    <junction id="6" type="dead_end" x="100.51" y="-11.97" incLanes="50199_0" intLanes="" shape="100.59,-14.33 100.42,-9.61"/>
    <junction id="7" type="dead_end" x="100.34" y="-8.28" incLanes="" intLanes="" shape="100.39,-10.48 100.30,-6.09"/>

    <connection from="50195" to="50199" fromLane="0" toLane="0" keepClear="0" contPos="-4.00" shape="1.94,-0.08 9.41,-0.41 10.55,-0.51 14.34,-0.91 18.72,-1.43 28.48,-3.23" via=":13_2_0" dir="s" state="Z"/>
    <connection from="50195" to="50203" fromLane="0" toLane="0" keepClear="0" contPos="-4.00" shape="1.94,-0.08 4.29,-0.15 7.25,-0.16 8.32,-0.16 10.13,-0.09 11.49,0.08 12.53,0.25 13.66,0.61 14.94,1.16 15.96,1.88 17.02,2.89 17.53,3.63 17.96,4.55 18.45,7.67 18.54,11.66" via=":13_3_0" dir="l" state="Z"/>
    <connection from="50201" to="50203" fromLane="0" toLane="0" keepClear="0" contPos="-4.00" shape="29.44,0.65 23.81,1.86 21.63,2.40 20.85,2.77 19.93,3.61 19.31,4.71 18.94,5.93 18.64,8.04 18.54,11.66" via=":13_0_0" dir="r" state="Z"/>
    <connection from="50201" to="50197" fromLane="0" toLane="0" keepClear="0" contPos="-4.00" shape="29.44,0.65 23.40,1.72 19.60,2.39 17.89,2.62 14.77,2.94 10.56,3.33 9.70,3.41 5.45,3.62 1.34,3.77" via=":13_1_0" dir="s" state="Z"/>
    <connection from="50205" to="50197" fromLane="0" toLane="0" keepClear="0" contPos="-4.00" shape="14.64,11.52 14.33,10.27 14.30,9.40 14.29,9.08 13.79,7.71 13.60,6.97 13.49,6.60 13.29,6.30 12.86,5.85 12.46,5.63 11.31,4.98 10.50,4.70 10.02,4.64 9.57,4.61 8.97,4.60 6.94,4.11 6.62,4.10 5.11,3.95 4.02,3.83 2.95,3.79 1.34,3.77" via=":13_4_0" dir="r" state="Z"/>
    <connection from="50205" to="50199" fromLane="0" toLane="0" keepClear="0" contPos="-4.00" shape="14.64,11.52 14.48,7.90 14.47,6.41 14.50,6.17 14.62,5.00 14.73,4.49 15.04,3.34 15.33,2.69 15.61,2.10 16.18,1.12 16.35,0.95 17.22,0.03 17.61,-0.25 17.94,-0.48 18.54,-0.82 18.77,-0.94 19.39,-1.18 20.11,-1.44 21.97,-1.91 28.48,-3.23" via=":13_5_0" dir="l" state="Z"/>

    <connection from=":13_0" to="50203" fromLane="0" toLane="0" dir="r" state="M"/>
    <connection from=":13_1" to="50197" fromLane="0" toLane="0" dir="s" state="M"/>
    <connection from=":13_2" to="50199" fromLane="0" toLane="0" dir="s" state="M"/>
    <connection from=":13_3" to="50203" fromLane="0" toLane="0" dir="l" state="M"/>
    <connection from=":13_4" to="50197" fromLane="0" toLane="0" dir="r" state="M"/>
    <connection from=":13_5" to="50199" fromLane="0" toLane="0" dir="l" state="M"/>
</net>

Analysis output:
# SUMO Network Analysis

## Overview

This network is centered around a single core junction (ID: 13), which connects three incoming edges to three outgoing edges. The network consists of six main through edges (excluding internal junction edges) and various internal connections facilitating turning movements at junction 13.

---

## 1. Edges and Lanes

### Entry Edges (network borders – incoming):
- Edge ID: 50195 | From: 1 | To: 13 | Lane: 50195_0
- Edge ID: 50201 | From: 7 | To: 13 | Lane: 50201_0
- Edge ID: 50205 | From: 11 | To: 13 | Lane: 50205_0

### Exit Edges (network borders – outgoing):
- Edge ID: 50197 | From: 13 | To: 4 | Lane: 50197_0
- Edge ID: 50199 | From: 13 | To: 6 | Lane: 50199_0
- Edge ID: 50203 | From: 13 | To: 10 | Lane: 50203_0

### Internal Turn Edges at Junction 13:
- :13_0 (lane :13_0_0) - connects 50201 ➝ 50203
- :13_1 (lane :13_1_0) - connects 50201 ➝ 50197
- :13_2 (lane :13_2_0) - connects 50195 ➝ 50199
- :13_3 (lane :13_3_0) - connects 50195 ➝ 50203
- :13_4 (lane :13_4_0) - connects 50205 ➝ 50197
- :13_5 (lane :13_5_0) - connects 50205 ➝ 50199

---

## 2. Valid Transitions (Pathways Through Junction 13)

| From Edge | Via Internal Lane | To Edge  | Direction |
|-----------|-------------------|----------|-----------|
| 50195     | :13_2_0           | 50199    | Straight  |
| 50195     | :13_3_0           | 50203    | Left      |
| 50201     | :13_0_0           | 50203    | Right     |
| 50201     | :13_1_0           | 50197    | Straight  |
| 50205     | :13_4_0           | 50197    | Right     |
| 50205     | :13_5_0           | 50199    | Left      |

---

## 3. Complete Reachability (Transitive Entry-to-Exit Paths)

Each entry edge leads to two different exit edges. All routing occurs via internal lanes through junction 13.

**Paths from Entry Edge 50195:**
- 50195 ➝ :13_2_0 ➝ 50199
- 50195 ➝ :13_3_0 ➝ 50203

**Paths from Entry Edge 50201:**
- 50201 ➝ :13_0_0 ➝ 50203
- 50201 ➝ :13_1_0 ➝ 50197

**Paths from Entry Edge 50205:**
- 50205 ➝ :13_4_0 ➝ 50197
- 50205 ➝ :13_5_0 ➝ 50199

---

## 4. Junction 13 Details

- Type: zipper
- ID: 13
- Incoming Lanes: 50201_0, 50195_0, 50205_0
- Internal Lanes: :13_0_0 to :13_5_0
- Handles all routing transitions from entry to exit edges

---

## 5. Summary: All Valid Entry-to-Exit Paths

| Entry Edge | Exit Edge | Route Through Junction 13 |
|------------|-----------|----------------------------|
| 50195      | 50199     | via :13_2_0                |
| 50195      | 50203     | via :13_3_0                |
| 50201      | 50197     | via :13_1_0                |
| 50201      | 50203     | via :13_0_0                |
| 50205      | 50197     | via :13_4_0                |
| 50205      | 50199     | via :13_5_0                |

---

## 6. Entry/Exit Points of the Simulation (Borders)

### Entry Edges (no incoming connections):
- 50195 (junction 1)
- 50201 (junction 7)
- 50205 (junction 11)

### Exit Edges (no outgoing connections):
- 50197 (junction 4)
- 50199 (junction 6)
- 50203 (junction 10)

These represent the **boundaries** of the simulation. All valid paths begin at one of the entry edges and end at one of the exit edges via junction 13.

---

# End of Network Analysis


Here is the actual .net.xml file you should analyze. Use the same approach as above and try to comply with your own output as much as possible.